15

N	-3.842130	1.580930	0.001380
C	-4.553280	0.405470	0.001730
C	-3.957930	-0.797660	0.000810
C	-2.494370	-0.829300	-0.000720
N	-1.862600	0.397430	-0.000990
C	-2.459000	1.634660	-0.000070
C	-4.687150	-2.102230	0.001150
O	-1.844300	-1.864650	-0.001710
O	-1.846810	2.678160	-0.000280
H	-4.308910	2.474180	0.001960
H	-0.815490	0.394270	-0.001750
H	-5.630060	0.516430	0.002870
H	-4.416170	-2.692190	-0.875570
H	-4.415120	-2.692400	0.877410
H	-5.765270	-1.944960	0.001830
